ckt7_Mon_rfi_08_der000.csv
fault_bus,fault_type,fault_R_ohm,Va_mag_pu,Va_ang_deg,Vb_mag_pu,Vb_ang_deg,Vc_mag_pu,Vc_ang_deg,Ia_mag_A,Ia_ang_deg,Ib_mag_A,Ib_ang_deg,Ic_mag_A,Ic_ang_deg
318412,SLG,0,0.128089,-115.0878,1.042481,-151.0277,1.041279,88.9463,3.5819,-78.1092,7.41,-161.3837,8.5997,43.0509
318412,SLG,10,1.037063,-31.1149,1.04048,-150.8463,1.035887,89.0775,8.6246,-58.9144,8.6184,-178.9194,8.6209,61.1189
318412,SLG,20,1.037069,-31.0921,1.040482,-150.8463,1.035885,89.0774,8.6245,-58.9073,8.6184,-178.911,8.621,61.1262
318412,SLG,30,1.037071,-31.0845,1.040483,-150.8463,1.035884,89.0774,8.6245,-58.905,8.6184,-178.9082,8.621,61.1287
318412,SLG,40,1.037072,-31.0807,1.040483,-150.8463,1.035884,89.0773,8.6245,-58.9038,8.6183,-178.9068,8.621,61.1299
318412,LL,0,0.124359,-113.2378,0.132033,125.2698,1.041179,88.8155,4.5418,-120.0088,2.1653,-127.7224,6.6938,57.5027
318412,LL,10,1.037065,-31.1148,1.040467,-150.892,1.035882,89.0774,8.6245,-58.929,8.6186,-178.9336,8.6209,61.1022
318412,LL,20,1.03707,-31.092,1.040476,-150.8691,1.035883,89.0774,8.6244,-58.9146,8.6185,-178.9181,8.621,61.1179
318412,LL,30,1.037072,-31.0844,1.040479,-150.8615,1.035883,89.0774,8.6244,-58.9098,8.6184,-178.9129,8.621,61.1231
318412,LL,40,1.037072,-31.0806,1.04048,-150.8577,1.035883,89.0773,8.6244,-58.9074,8.6184,-178.9104,8.621,61.1257
318412,3LG,0,0.129437,-113.1073,0.12988,127.1185,0.129291,7.0509,1.0969,-140.8697,1.0996,99.1185,1.098,-20.9941
318412,3LG,10,1.037061,-31.1149,1.040471,-150.8919,1.035869,89.0317,8.6245,-58.9458,8.6184,-178.9482,8.6212,61.088
318412,3LG,20,1.037068,-31.092,1.040478,-150.8691,1.035876,89.0545,8.6245,-58.923,8.6184,-178.9254,8.6211,61.1108
318412,3LG,30,1.03707,-31.0844,1.04048,-150.8614,1.035878,89.0621,8.6244,-58.9154,8.6184,-178.9178,8.6211,61.1184
318412,3LG,40,1.037071,-31.0806,1.040481,-150.8576,1.03588,89.0659,8.6244,-58.9116,8.6184,-178.914,8.6211,61.1222
243937,SLG,0,0.003631,-27.0717,1.329598,173.9199,1.731306,103.0449,8.2386,-71.0145,8.2049,178.4939,9.3738,53.9091
243937,SLG,10,1.030525,-31.2228,1.042775,-151.1009,1.038803,89.3159,8.6292,-58.9544,8.6219,-178.9647,8.6242,61.0822
243937,SLG,20,1.033791,-31.1462,1.041634,-150.974,1.037343,89.1972,8.6268,-58.9274,8.6201,-178.9337,8.6226,61.1078
243937,SLG,30,1.034883,-31.1206,1.041251,-150.9315,1.036856,89.1574,8.626,-58.9184,8.6195,-178.9234,8.6221,61.1164
243937,SLG,40,1.03543,-31.1078,1.04106,-150.9102,1.036613,89.1374,8.6256,-58.9139,8.6192,-178.9182,8.6218,61.1206
243937,LL,0,0.026262,-58.7108,0.029864,107.6705,1.481482,84.1074,5.886,-122.5162,5.3605,-125.1767,11.2434,56.2157
243937,LL,10,1.033434,-30.985,1.036259,-151.2525,1.041044,89.062,8.6323,-59.0056,8.6266,-179.0191,8.6277,61.0203
243937,LL,20,1.035243,-31.0267,1.038364,-151.05,1.038478,89.0698,8.6284,-58.953,8.6225,-178.961,8.6244,61.0768
243937,LL,30,1.035851,-31.0408,1.039069,-150.9822,1.037616,89.0723,8.627,-58.9354,8.6211,-178.9415,8.6233,61.0957
243937,LL,40,1.036156,-31.0479,1.039422,-150.9483,1.037184,89.0736,8.6264,-58.9267,8.6204,-178.9318,8.6227,61.1052
243937,3LG,0,0.032212,-96.0356,0.032306,144.1909,0.032166,24.1067,0.2729,-123.8039,0.2736,116.1834,0.2732,-3.9249
243937,3LG,10,1.035713,-31.2384,1.039121,-151.0149,1.034517,88.9082,8.6359,-59.0682,8.6298,-179.0705,8.6326,60.9657
243937,3LG,20,1.036395,-31.1539,1.039803,-150.9306,1.035201,88.9927,8.6302,-58.9843,8.6241,-178.9866,8.6268,61.0496
243937,3LG,30,1.036621,-31.1257,1.040031,-150.9025,1.035428,89.0209,8.6282,-58.9563,8.6222,-178.9586,8.6249,61.0776
243937,3LG,40,1.036735,-31.1116,1.040144,-150.8884,1.035542,89.035,8.6273,-58.9423,8.6212,-178.9446,8.6239,61.0916
157347,SLG,0,0.410415,-24.1242,1.093368,-169.1326,1.346557,96.0743,9.0913,-63.8599,9.0891,-179.6818,9.6581,58.2404
157347,SLG,10,1.028665,-31.5517,1.045424,-151.0713,1.037032,89.4284,8.633,-59.0131,8.6247,-179.0326,8.6263,61.025
157347,SLG,20,1.032868,-31.3126,1.042982,-150.9587,1.036433,89.2542,8.6287,-58.9571,8.6215,-178.968,8.6236,61.0788
157347,SLG,30,1.03427,-31.2319,1.042156,-150.9212,1.036244,89.1955,8.6272,-58.9383,8.6204,-178.9463,8.6228,61.0969
157347,SLG,40,1.034971,-31.1914,1.04174,-150.9025,1.036151,89.1661,8.6265,-58.9288,8.6199,-178.9354,8.6223,61.106
157347,LL,0,0.50714,-33.227,0.344857,-162.0274,1.256561,84.0971,6.9216,-90.2927,5.9894,-157.8147,10.7462,58.7095
157347,LL,10,1.02983,-31.1994,1.037009,-151.5506,1.041923,89.2012,8.6381,-59.1224,8.6331,-179.1467,8.6324,60.8945
157347,LL,20,1.033412,-31.1356,1.038779,-151.2007,1.03892,89.1416,8.6312,-59.0119,8.6256,-179.0253,8.6267,61.0133
157347,LL,30,1.034624,-31.1138,1.039355,-151.0831,1.037912,89.1207,8.6289,-58.9748,8.6232,-178.9846,8.6248,61.0532
157347,LL,40,1.035233,-31.1028,1.03964,-151.0241,1.037406,89.1101,8.6278,-58.9562,8.622,-178.9641,8.6238,61.0733
157347,3LG,0,0.445706,-42.9485,0.447033,-162.7298,0.445122,77.1924,3.7766,-70.7194,3.7853,169.2667,3.7802,49.1594
157347,3LG,10,1.034721,-31.4252,1.038132,-151.2019,1.033532,88.7213,8.6443,-59.2544,8.6382,-179.2567,8.641,60.7796
157347,3LG,20,1.035906,-31.2478,1.039316,-151.0246,1.034716,88.8987,8.6343,-59.0779,8.6282,-179.0802,8.6309,60.956
157347,3LG,30,1.036297,-31.1884,1.039707,-150.9653,1.035107,88.9581,8.631,-59.0188,8.6249,-179.0211,8.6276,61.0151
157347,3LG,40,1.036492,-31.1587,1.039902,-150.9356,1.035301,88.9879,8.6293,-58.9892,8.6232,-178.9915,8.626,61.0447
298162,SLG,0,0.004914,153.8839,1.228284,-171.8577,1.40062,101.697,6.8956,-67.9376,8.3188,-172.6685,9.3584,52.7797
298162,SLG,10,1.021038,-32.5225,1.052879,-151.0693,1.033364,89.7879,8.6482,-59.2028,8.636,-179.2533,8.6355,60.8425
298162,SLG,20,1.029079,-31.8013,1.046754,-150.9549,1.034512,89.4339,8.636,-59.0534,8.6269,-179.0792,8.6281,60.9861
298162,SLG,30,1.031749,-31.5585,1.04468,-150.918,1.034943,89.3153,8.6321,-59.0027,8.624,-179.0206,8.6257,61.0348
298162,SLG,40,1.033083,-31.4366,1.043637,-150.8998,1.035169,89.2559,8.6301,-58.9773,8.6226,-178.9912,8.6245,61.0593
298162,LL,0,0.002945,-14.3398,0.008885,92.3036,1.351753,86.1291,4.9824,-121.5857,4.8806,-121.9987,9.8629,58.2099
298162,LL,10,1.018456,-31.8053,1.036719,-152.5116,1.045731,89.5531,8.662,-59.5008,8.6586,-179.5606,8.6524,60.4889
298162,LL,20,1.027662,-31.4435,1.038734,-151.6838,1.040789,89.3237,8.6429,-59.2023,8.6382,-179.2339,8.6364,60.8089
298162,LL,30,1.030777,-31.3202,1.039348,-151.4057,1.039148,89.2435,8.6366,-59.102,8.6315,-179.1239,8.6312,60.9166
298162,LL,40,1.032343,-31.258,1.039643,-151.2662,1.03833,89.2026,8.6335,-59.0517,8.6282,-179.0688,8.6286,60.9707
298162,3LG,0,0.005848,-101.5708,0.005859,138.5922,0.005841,18.5274,0.0495,-129.3768,0.0496,110.6032,0.0496,-9.485
298162,3LG,10,1.030692,-32.0314,1.034131,-151.81,1.029552,88.1151,8.6785,-59.8583,8.6722,-179.8605,8.6751,60.1761
298162,3LG,20,1.03391,-31.5517,1.037336,-151.3295,1.032745,88.5948,8.6511,-59.3807,8.645,-179.3829,8.6477,60.6535
298162,3LG,30,1.034971,-31.3912,1.038391,-151.1688,1.033798,88.7554,8.6421,-59.2208,8.636,-179.2231,8.6388,60.8132
298162,3LG,40,1.035499,-31.3108,1.038917,-151.0882,1.034321,88.8357,8.6377,-59.1408,8.6316,-179.1431,8.6343,60.8932
165448,SLG,0,0.004793,153.591,1.233024,-171.4899,1.393051,101.9116,6.8732,-67.2936,8.353,-172.5788,9.3136,52.8085
165448,SLG,10,1.020205,-32.6483,1.053856,-151.0611,1.032757,89.8311,8.6501,-59.2257,8.6374,-179.2801,8.6367,60.8205
165448,SLG,20,1.028671,-31.865,1.04725,-150.9501,1.03419,89.4554,8.6369,-59.0651,8.6276,-179.0927,8.6287,60.9748
165448,SLG,30,1.031479,-31.6011,1.045013,-150.9147,1.034725,89.3296,8.6327,-59.0106,8.6244,-179.0297,8.6261,61.0272
165448,SLG,40,1.032881,-31.4687,1.043887,-150.8973,1.035004,89.2666,8.6306,-58.9832,8.6229,-178.998,8.6248,61.0536
165448,LL,0,0.00276,-10.9679,0.008402,91.7912,1.350103,86.3134,4.9709,-121.4176,4.8761,-121.7976,9.847,58.3942
165448,LL,10,1.017007,-31.8866,1.036833,-152.6281,1.046115,89.6027,8.665,-59.5469,8.6617,-179.6109,8.655,60.4397
165448,LL,20,1.026928,-31.4854,1.038815,-151.7424,1.040969,89.3496,8.6443,-59.2256,8.6397,-179.2593,8.6376,60.7839
165448,LL,30,1.030285,-31.3484,1.039407,-151.4448,1.039266,89.261,8.6376,-59.1176,8.6325,-179.141,8.632,60.8999
165448,LL,40,1.031973,-31.2793,1.03969,-151.2956,1.038417,89.2159,8.6342,-59.0634,8.6289,-179.0816,8.6292,60.9581
165448,3LG,0,0.005429,-101.6242,0.005439,138.5324,0.005423,18.47,0.046,-129.4338,0.0461,110.5454,0.046,-9.5409
165448,3LG,10,1.030199,-32.1053,1.033645,-151.8844,1.029069,88.0412,8.6826,-59.9321,8.6764,-179.9342,8.6792,60.1024
165448,3LG,20,1.033668,-31.5889,1.037097,-151.367,1.032509,88.5577,8.6531,-59.4178,8.647,-179.42,8.6498,60.6164
165448,3LG,30,1.034811,-31.416,1.038234,-151.1938,1.033641,88.7305,8.6435,-59.2456,8.6374,-179.2479,8.6401,60.7884
165448,3LG,40,1.035379,-31.3295,1.038799,-151.107,1.034204,88.8171,8.6387,-59.1594,8.6326,-179.1617,8.6353,60.8746
165449,SLG,0,0.002908,154.488,1.267817,-170.1283,1.365616,103.4319,6.9117,-63.9349,8.5628,-172.5428,9.1282,53.3139
165449,SLG,10,1.012195,-33.9061,1.064145,-150.9917,1.026675,90.2976,8.6679,-59.4445,8.6503,-179.5392,8.6467,60.6089
165449,SLG,20,1.024806,-32.5044,1.052496,-150.9044,1.030886,89.6857,8.6451,-59.178,8.6335,-179.2245,8.6332,60.8653
165449,SLG,30,1.028936,-32.0297,1.04853,-150.8816,1.032464,89.4823,8.6379,-59.0866,8.6282,-179.118,8.629,60.9533
165449,SLG,40,1.030987,-31.7909,1.046533,-150.8715,1.033285,89.3808,8.6344,-59.0405,8.6257,-179.0645,8.6269,60.9979
165449,LL,0,0.001654,-12.5688,0.004966,90.2258,1.349504,87.2951,4.9576,-120.5358,4.9006,-120.7377,9.8583,59.3638
165449,LL,10,1.00277,-32.6608,1.038679,-153.8023,1.050546,90.11,8.6909,-59.9935,8.6897,179.9043,8.6769,59.9624
165449,LL,20,1.019686,-31.8907,1.040095,-152.3337,1.042997,89.6202,8.6564,-59.4522,8.6529,-179.5062,8.6476,60.5407
165449,LL,30,1.025433,-31.6227,1.040342,-151.8398,1.040571,89.4452,8.6454,-59.2694,8.6412,-179.3065,8.6384,60.7367
165449,LL,40,1.028325,-31.4866,1.040423,-151.5921,1.039377,89.3554,8.6401,-59.1775,8.6354,-179.2061,8.634,60.8353
165449,3LG,0,0.003215,-102.9666,0.003219,137.1176,0.003213,17.0834,0.0272,-130.8165,0.0273,109.1546,0.0273,-10.9113
165449,3LG,10,1.025964,-32.8224,1.029519,-152.6093,1.024995,87.3249,8.7183,-60.6487,8.712,179.3494,8.7149,59.3863
165449,3LG,20,1.031612,-31.9503,1.0351,-151.7323,1.030535,88.1969,8.6703,-59.7788,8.6641,-179.781,8.6669,60.2555
165449,3LG,30,1.033454,-31.6576,1.036917,-151.4379,1.03234,88.4894,8.6547,-59.4869,8.6486,-179.4892,8.6514,60.5472
165449,3LG,40,1.034367,-31.5109,1.037818,-151.2904,1.033234,88.636,8.6471,-59.3406,8.6409,-179.3429,8.6437,60.6935
287274,SLG,0,0.081444,-56.202,1.277415,-167.1616,1.300211,103.9641,7.2532,-62.244,8.7495,-173.4219,9.1274,54.3942
287274,SLG,10,1.002357,-34.6132,1.06989,-150.9767,1.023635,90.5721,8.6937,-59.5685,8.6714,-179.6834,8.6675,60.5015
287274,SLG,20,1.019939,-32.8774,1.055542,-150.886,1.02909,89.8238,8.6575,-59.2462,8.6435,-179.3016,8.6433,60.8063
287274,SLG,30,1.025708,-32.2826,1.050594,-150.8669,1.031205,89.5743,8.6461,-59.1335,8.6348,-179.1705,8.6356,60.9128
287274,SLG,40,1.028572,-31.9822,1.048093,-150.8595,1.032318,89.4497,8.6405,-59.0762,8.6306,-179.1042,8.6319,60.967
287274,LL,0,0.112273,-54.6651,0.090804,164.0071,1.323707,88.4159,5.6389,-112.5272,4.4401,-129.3313,9.9724,60.0771
287274,LL,10,0.992991,-33.1463,1.037697,-154.5958,1.057667,90.3097,8.7059,-60.3265,8.7031,179.5376,8.6866,59.6211
287274,LL,20,1.013007,-32.1214,1.038139,-152.6877,1.044323,89.7714,8.6788,-59.584,8.6748,-179.6557,8.6674,60.4025
287274,LL,30,1.020926,-31.7819,1.039121,-152.0781,1.041417,89.5501,8.6602,-59.359,8.6556,-179.408,8.6515,60.6426
287274,LL,40,1.024925,-31.608,1.039538,-151.7717,1.039997,89.4357,8.6511,-59.2453,8.6462,-179.2829,8.6437,60.7639
287274,3LG,0,0.110749,-67.4843,0.110815,172.562,0.110707,52.543,0.9385,-95.3576,0.9398,144.6123,0.9387,24.5584
287274,3LG,10,1.018475,-33.2382,1.022116,-153.032,1.01765,86.91,8.7829,-61.0617,8.7765,178.9366,8.7795,58.974
287274,3LG,20,1.027879,-32.1661,1.031417,-151.9515,1.026878,87.9818,8.7019,-59.9929,8.6957,-179.995,8.6985,60.0418
287274,3LG,30,1.030969,-31.8032,1.034467,-151.5858,1.029906,88.3444,8.6757,-59.6314,8.6695,-179.6335,8.6723,60.4031
287274,3LG,40,1.032505,-31.6207,1.035982,-151.402,1.03141,88.5266,8.6627,-59.4496,8.6566,-179.4518,8.6594,60.5847
283954,SLG,0,0.001131,-93.347,1.300576,-167.6708,1.312403,104.9634,8144.798,-93.3203,8.7998,-171.9237,8.8259,53.4792
283954,SLG,10,0.991289,-35.5592,1.077521,-150.9572,1.019668,90.9395,721.651,-35.8427,8.695,-179.8747,8.6897,60.3568
283954,SLG,20,1.01447,-33.3657,1.059524,-150.8615,1.026759,90.0049,373.0021,-33.9489,8.6546,-179.4018,8.654,60.7284
283954,SLG,30,1.022081,-32.6113,1.053276,-150.8473,1.029574,89.694,253.0543,-33.4882,8.642,-179.2383,8.6427,60.8595
283954,SLG,40,1.02586,-32.2299,1.050114,-150.8435,1.031065,89.5391,192.3954,-33.3947,8.6359,-179.1555,8.6372,60.9265
283954,LL,0,0.001715,-77.6593,0.001698,129.53,1.340187,88.6319,12350.7647,-77.6744,12224.7461,129.5513,9.7866,60.6567
283954,LL,10,0.977648,-33.703,1.033483,-155.5075,1.06172,90.6624,711.6797,-34.0226,751.9823,-155.7928,8.7312,59.277
283954,LL,20,1.005139,-32.4237,1.036453,-153.1474,1.046076,89.9686,369.5808,-33.0432,380.8914,-153.7354,8.6888,60.222
283954,LL,30,1.015624,-31.9889,1.038091,-152.386,1.042525,89.6865,251.4636,-32.9013,256.873,-153.2687,8.6655,60.5201
283954,LL,40,1.020929,-31.7654,1.038803,-152.0031,1.040803,89.5398,191.4772,-32.9651,194.7019,-153.1748,8.6541,60.6714
283954,3LG,0,0.001916,-94.136,0.001916,145.8618,0.001916,25.8666,13791.7626,-94.136,13794.559,145.8618,13792.4643,25.8666
283954,3LG,10,1.010387,-33.7887,1.014136,-153.5923,1.009755,86.3609,735.2759,-34.1107,737.9547,-153.915,734.8096,86.0377
283954,3LG,20,1.023849,-32.4464,1.027452,-152.2366,1.022949,87.7027,376.3112,-33.0673,377.5879,-152.8593,375.9764,87.0792
283954,3LG,30,1.028286,-31.9912,1.031831,-151.777,1.027292,88.1573,254.4984,-32.9054,255.3285,-152.6941,254.249,87.2392
283954,3LG,40,1.030494,-31.7622,1.034008,-151.5458,1.029452,88.386,193.196,-32.9639,193.8078,-152.7515,192.9976,87.1789
283956,SLG,0,0.188099,-69.2553,1.292993,-164.2962,1.235963,104.6768,7043.5811,-85.9647,8.8328,-171.4139,8.7116,53.1864
283956,SLG,10,0.991735,-35.4676,1.076861,-150.9625,1.020067,90.9094,709.0487,-36.0654,8.7294,-179.917,8.7265,60.3417
283956,SLG,20,1.014572,-33.3416,1.059349,-150.8637,1.026878,89.9975,369.6898,-34.0848,8.6719,-179.4317,8.6729,60.7146
283956,SLG,30,1.022125,-32.6004,1.053196,-150.8484,1.029629,89.6907,251.5542,-33.5851,8.6536,-179.2603,8.6554,60.8488
283956,SLG,40,1.025884,-32.2237,1.050069,-150.8441,1.031098,89.5372,191.5418,-33.4701,8.6446,-179.1727,8.6468,60.9179
283956,LL,0,0.211343,-63.4872,0.210925,165.052,1.301495,90.0174,10342.3405,-69.3667,10428.1959,138.839,9.7025,61.0345
283956,LL,10,0.978917,-33.6538,1.032954,-155.4203,1.061336,90.621,700.7935,-33.9755,741.0573,-156.2047,8.8021,59.2141
283956,LL,20,1.005469,-32.4093,1.036285,-153.1253,1.045998,89.9568,366.6036,-33.0366,378.1695,-153.9704,8.725,60.1762
283956,LL,30,1.015774,-31.9822,1.038011,-152.3761,1.042493,89.6809,250.0958,-32.9029,255.6651,-153.4322,8.6898,60.4862
283956,LL,40,1.021013,-31.7615,1.038756,-151.9974,1.040785,89.5366,190.6936,-32.9695,194.0227,-153.3001,8.6724,60.6448
283956,3LG,0,0.222212,-69.2665,0.222474,170.7419,0.222261,50.7658,11630.6107,-85.2152,11638.8402,154.7838,11632.1034,34.789
283956,3LG,10,1.010566,-33.749,1.014304,-153.5517,1.009917,86.4006,725.9532,-34.2893,728.575,-154.0961,725.5109,85.8563
283956,3LG,20,1.02389,-32.4362,1.02749,-152.2262,1.022986,87.7129,373.9136,-33.1699,375.1775,-152.9635,373.5878,86.9753
283956,3LG,30,1.028304,-31.9866,1.031847,-151.7723,1.027307,88.1619,253.4222,-32.9781,254.247,-152.7678,253.1773,87.1656
283956,3LG,40,1.030504,-31.7596,1.034016,-151.5431,1.02946,88.3886,192.5873,-33.0207,193.1962,-152.8091,192.3916,87.1215
189963,SLG,0,0.405999,-44.3292,1.216942,-161.7975,1.187179,100.9074,9.081,-62.7856,9.1968,-178.4785,9.7278,58.7906
189963,SLG,10,0.998184,-35.1574,1.07848,-151.1473,1.026343,90.7719,8.6771,-59.7295,8.6525,-179.8572,8.6481,60.3478
189963,SLG,20,1.016904,-33.1641,1.058131,-150.8917,1.027884,89.9501,8.6638,-59.2971,8.6485,-179.3606,8.6479,60.759
189963,SLG,30,1.023757,-32.4882,1.05242,-150.8653,1.030259,89.6601,8.6501,-59.1704,8.638,-179.2129,8.6385,60.8782
189963,SLG,40,1.027139,-32.1418,1.049498,-150.8562,1.031553,89.5146,8.6435,-59.1049,8.6329,-179.1372,8.634,60.9399
189963,LL,0,0.485564,-42.7865,0.426792,-174.4533,1.23756,89.2139,7.1164,-89.5292,5.4359,-162.674,10.1304,59.5708
189963,LL,10,0.985431,-33.3065,1.034216,-155.1483,1.061378,90.4554,8.7296,-60.4946,8.7268,179.3495,8.7076,59.4433
189963,LL,20,1.011927,-32.3376,1.041018,-153.1017,1.050057,89.8179,8.6583,-59.7723,8.6546,-179.8543,8.6457,60.2078
189963,LL,30,1.018052,-31.896,1.038947,-152.2901,1.042396,89.6357,8.6665,-59.4334,8.6622,-179.4897,8.657,60.563
189963,LL,40,1.022726,-31.6996,1.039498,-151.9336,1.040705,89.5036,8.6557,-59.303,8.651,-179.3461,8.6477,60.7023
189963,3LG,0,0.480631,-50.2718,0.480879,-170.2775,0.480971,69.7505,4.0744,-78.1739,4.079,161.8072,4.0756,41.7603
189963,3LG,10,1.018143,-33.6128,1.022181,-153.4261,1.017691,86.5456,8.7836,-61.4395,8.7772,178.5592,8.7802,58.5961
189963,3LG,20,1.02617,-32.3369,1.029908,-152.1312,1.025356,87.8165,8.7155,-60.1638,8.7093,179.8343,8.7122,59.871
189963,3LG,30,1.029849,-31.9232,1.033488,-151.7117,1.028913,88.2283,8.6845,-59.7513,8.6783,-179.7533,8.6811,60.2832
189963,3LG,40,1.031673,-31.7131,1.035259,-151.4987,1.030674,88.4374,8.6692,-59.5418,8.6631,-179.5439,8.6659,60.4925
181977,SLG,0,0.499631,-41.1209,1.1913,-160.3012,1.160056,99.4398,9.4125,-61.4109,9.3801,-179.7544,9.6306,59.583
181977,SLG,10,0.997474,-35.0589,1.077942,-151.177,1.027076,90.7607,8.678,-59.7123,8.6535,-179.8356,8.6496,60.3664
181977,SLG,20,1.016655,-33.137,1.057991,-150.901,1.028097,89.9482,8.6642,-59.2923,8.6489,-179.3546,8.6484,60.7644
181977,SLG,30,1.023617,-32.4755,1.052361,-150.87,1.03036,89.6598,8.6504,-59.1681,8.6382,-179.2101,8.6388,60.8808
181977,SLG,40,1.027046,-32.1344,1.049466,-150.8591,1.031614,89.5146,8.6436,-59.1036,8.633,-179.1356,8.6342,60.9415
181977,LL,0,0.57991,-40.1715,0.515446,-169.4388,1.20876,89.2009,7.478,-82.559,6.2944,-168.6098,10.1007,59.0014
181977,LL,10,0.986005,-33.2078,1.032702,-155.0969,1.061579,90.4052,8.7315,-60.4621,8.7285,179.3824,8.7095,59.477
181977,LL,20,1.011976,-32.3073,1.040542,-153.0927,1.050196,89.8054,8.6591,-59.7635,8.6554,-179.8454,8.6465,60.217
181977,LL,30,1.018067,-31.8814,1.03872,-152.2854,1.042459,89.6297,8.6669,-59.429,8.6626,-179.4852,8.6574,60.5676
181977,LL,40,1.022721,-31.6908,1.03936,-151.9311,1.040748,89.5003,8.656,-59.3004,8.6513,-179.3435,8.648,60.705
181977,3LG,0,0.571367,-46.4069,0.57184,-166.4053,0.571848,73.6284,5.2699,-74.2658,5.2802,165.716,5.2736,45.6282
181977,3LG,10,1.017872,-33.5691,1.02192,-153.3847,1.01745,86.5886,8.7859,-61.3967,8.7795,178.6021,8.7825,58.639
181977,3LG,20,1.026059,-32.3241,1.029813,-152.1197,1.025267,87.8293,8.7164,-60.1514,8.7101,179.8467,8.713,59.8834
181977,3LG,30,1.029781,-31.917,1.033434,-151.7063,1.028861,88.2347,8.685,-59.7453,8.6788,-179.7473,8.6816,60.2892
181977,3LG,40,1.031625,-31.7093,1.035222,-151.4955,1.030638,88.4413,8.6696,-59.5382,8.6634,-179.5403,8.6662,60.4961
181924,SLG,0,0.509813,-36.165,1.173284,-160.5524,1.168431,98.614,9.5514,-60.4045,9.505,-179.7192,9.6268,60.1765
181924,SLG,10,0.996092,-35.0483,1.078095,-151.208,1.027501,90.7853,8.6803,-59.7105,8.6556,-179.8329,8.652,60.3701
181924,SLG,20,1.016206,-33.1348,1.058056,-150.9106,1.028212,89.9569,8.665,-59.292,8.6496,-179.3539,8.6492,60.7654
181924,SLG,30,1.023372,-32.4751,1.052417,-150.8746,1.03041,89.665,8.6508,-59.1678,8.6385,-179.2096,8.6392,60.8816
181924,SLG,40,1.026884,-32.1343,1.049507,-150.862,1.031644,89.5182,8.6439,-59.1034,8.6332,-179.1352,8.6344,60.942
181924,LL,0,0.566122,-37.3423,0.503819,-162.3013,1.20031,88.7339,7.2983,-82.3513,6.51,-163.934,10.4668,59.6776
181924,LL,10,0.985458,-33.1649,1.031266,-155.1251,1.062138,90.3895,8.7358,-60.4603,8.7327,179.3818,8.7134,59.4787
181924,LL,20,1.011697,-32.293,1.040105,-153.105,1.05043,89.8039,8.6606,-59.7627,8.6568,-179.8453,8.6478,60.2177
181924,LL,30,1.017911,-31.874,1.038505,-152.2912,1.042577,89.6295,8.6677,-59.4284,8.6633,-179.4849,8.6581,60.5683
181924,LL,40,1.02261,-31.686,1.039224,-151.9349,1.040826,89.5005,8.6565,-59.2999,8.6517,-179.3431,8.6485,60.7056
181924,3LG,0,0.54787,-41.5649,0.548266,-161.5589,0.548306,78.4712,4.897,-69.4323,4.9062,170.5542,4.9006,50.4672
181924,3LG,10,1.01722,-33.5744,1.021268,-153.3906,1.016804,86.5831,8.7916,-61.4018,8.7852,178.5969,8.7882,58.6339
181924,3LG,20,1.025844,-32.3247,1.029602,-152.1205,1.025056,87.8289,8.7182,-60.1518,8.7119,179.8463,8.7148,59.883
181924,3LG,30,1.029661,-31.9169,1.033318,-151.7063,1.028744,88.235,8.686,-59.745,8.6798,-179.7471,8.6826,60.2894
181924,3LG,40,1.031544,-31.709,1.035144,-151.4953,1.03056,88.4418,8.6703,-59.5378,8.6641,-179.5399,8.6669,60.4965
181993,SLG,0,0.547598,-34.464,1.159477,-160.053,1.161206,97.8513,9.4841,-60.1891,9.4299,-179.5581,9.5472,60.4072
181993,SLG,10,0.995342,-35.0034,1.077929,-151.231,1.027955,90.7889,8.6814,-59.7028,8.6567,-179.823,8.6533,60.379
181993,SLG,20,1.015939,-33.125,1.058046,-150.918,1.028333,89.9604,8.6654,-59.2902,8.65,-179.3517,8.6497,60.7676
181993,SLG,30,1.023229,-32.4714,1.052428,-150.8781,1.030463,89.6675,8.651,-59.167,8.6387,-179.2086,8.6394,60.8826
181993,SLG,40,1.026792,-32.1325,1.04952,-150.8642,1.031673,89.5201,8.644,-59.103,8.6334,-179.1347,8.6346,60.9426
181993,LL,0,0.595642,-35.9078,0.537335,-159.3798,1.187841,88.616,7.4346,-79.4944,6.9332,-164.9275,10.5617,59.6346
181993,LL,10,0.985611,-33.1109,1.030095,-155.1108,1.062391,90.3606,8.738,-60.4467,8.7347,179.3946,8.7154,59.4928
181993,LL,20,1.011664,-32.2765,1.039752,-153.1052,1.050557,89.7972,8.6613,-59.7593,8.6575,-179.8421,8.6485,60.2212
181993,LL,30,1.017869,-31.8662,1.038338,-152.2924,1.042649,89.6271,8.6681,-59.4269,8.6637,-179.4835,8.6585,60.5698
181993,LL,40,1.022574,-31.6814,1.039124,-151.9361,1.040874,89.4994,8.6567,-59.2991,8.652,-179.3424,8.6487,60.7064
181993,3LG,0,0.576138,-39.2421,0.576597,-159.2243,0.576569,80.7998,5.3449,-67.0958,5.3554,172.893,5.3493,52.8017
181993,3LG,10,1.016912,-33.5609,1.020935,-153.3758,1.016471,86.5961,8.7945,-61.3879,8.788,178.6109,8.7911,58.6479
181993,3LG,20,1.025741,-32.3215,1.02949,-152.1169,1.024945,87.8319,8.7192,-60.1485,8.7129,179.8496,8.7158,59.8863
181993,3LG,30,1.029606,-31.9156,1.033258,-151.7047,1.028684,88.2363,8.6865,-59.7436,8.6803,-179.7457,8.6831,60.2909
181993,3LG,40,1.031508,-31.7083,1.035105,-151.4944,1.03052,88.4425,8.6706,-59.537,8.6644,-179.5391,8.6672,60.4973
181994,SLG,0,0.586805,-33.5172,1.147316,-159.4495,1.152036,97.1334,9.4105,-60.0393,9.3515,-179.4556,9.4638,60.5612
181994,SLG,10,0.994791,-34.944,1.077604,-151.2515,1.028444,90.7828,8.6822,-59.6931,8.6575,-179.8106,8.6545,60.3899
181994,SLG,20,1.015752,-33.1098,1.057969,-150.9245,1.028471,89.9599,8.6657,-59.2878,8.6503,-179.3486,8.6501,60.7705
181994,SLG,30,1.023138,-32.4645,1.052397,-150.8811,1.030526,89.6674,8.6511,-59.1659,8.6389,-179.2072,8.6396,60.8839
181994,SLG,40,1.026737,-32.1285,1.049503,-150.866,1.031709,89.5201,8.6441,-59.1023,8.6335,-179.1338,8.6347,60.9433
181994,LL,0,0.630507,-34.7873,0.57688,-157.6595,1.175738,88.5645,7.6313,-76.3965,7.387,-166.5666,10.6052,59.4533
181994,LL,10,0.985984,-33.0541,1.028977,-155.0786,1.062509,90.326,8.7397,-60.4287,8.7362,179.4122,8.717,59.5115
181994,LL,20,1.011732,-32.259,1.039414,-153.0987,1.050628,89.7877,8.6619,-59.7545,8.658,-179.8373,8.6491,60.2262
181994,LL,30,1.017891,-31.858,1.03818,-152.2898,1.042687,89.6228,8.6684,-59.4247,8.664,-179.4814,8.6587,60.5721
181994,LL,40,1.022585,-31.6765,1.039031,-151.9346,1.040897,89.4969,8.6569,-59.2978,8.6522,-179.3411,8.6489,60.7078
181994,3LG,0,0.612177,-37.6323,0.612755,-157.5994,0.612596,82.418,5.9161,-65.4721,5.9283,174.5187,5.9214,54.4215
181994,3LG,10,1.016667,-33.5402,1.020667,-153.3535,1.016195,86.6168,8.7968,-61.3665,8.7903,178.6323,8.7934,58.6693
181994,3LG,20,1.025667,-32.3162,1.029408,-152.1109,1.024859,87.8373,8.7199,-60.1429,8.7136,179.8552,8.7165,59.8919
181994,3LG,30,1.02957,-31.9131,1.033218,-151.7019,1.028641,88.2388,8.6869,-59.7409,8.6807,-179.743,8.6835,60.2935
181994,3LG,40,1.031487,-31.7069,1.035081,-151.4927,1.030493,88.444,8.6708,-59.5354,8.6646,-179.5375,8.6674,60.4989
181891,SLG,0,0.639494,-34.2412,1.138338,-158.3892,1.133755,96.4401,9.3181,-60.0043,9.257,-179.6076,9.3434,60.5181
181891,SLG,10,0.994778,-34.8302,1.076788,-151.2691,1.029114,90.7503,8.6819,-59.6747,8.6575,-179.7877,8.6549,60.409
181891,SLG,20,1.015693,-33.0766,1.057727,-150.9314,1.028695,89.9511,8.6658,-59.2826,8.6504,-179.3422,8.6503,60.776
181891,SLG,30,1.023107,-32.4484,1.052281,-150.8844,1.030636,89.663,8.6512,-59.1634,8.6389,-179.2041,8.6398,60.8866
181891,SLG,40,1.02672,-32.1188,1.049435,-150.8677,1.031775,89.5173,8.6442,-59.1008,8.6335,-179.1319,8.6348,60.945
181891,LL,0,0.689357,-35.1086,0.633295,-158.4378,1.160718,88.721,8.0049,-72.7642,7.9121,-170.5622,10.4639,58.7197
181891,LL,10,0.987112,-32.973,1.027926,-154.9929,1.062325,90.2712,8.7397,-60.3934,8.736,179.4488,8.717,59.5484
181891,LL,20,1.012034,-32.2322,1.039044,-153.076,1.050625,89.7701,8.662,-59.7443,8.6581,-179.8267,8.6493,60.2369
181891,LL,30,1.018028,-31.8448,1.037997,-152.2791,1.042693,89.6142,8.6685,-59.4198,8.664,-179.4763,8.6589,60.5773
181891,LL,40,1.022668,-31.6687,1.038921,-151.9281,1.040901,89.4916,8.657,-59.2949,8.6522,-179.338,8.6489,60.7109
181891,3LG,0,0.671984,-38.1212,0.672866,-158.0703,0.67238,81.9426,6.8645,-65.9439,6.88,174.0435,6.871,53.9384
181891,3LG,10,1.016729,-33.491,1.020654,-153.3033,1.016216,86.6621,8.7966,-61.3183,8.7901,178.6804,8.7932,58.7175
181891,3LG,20,1.025674,-32.302,1.029382,-152.0968,1.024856,87.8495,8.7199,-60.1294,8.7136,179.8687,8.7165,59.9055
181891,3LG,30,1.029575,-31.9062,1.033202,-151.6951,1.028641,88.2445,8.6869,-59.7345,8.6807,-179.7365,8.6835,60.3
181891,3LG,40,1.031491,-31.7026,1.03507,-151.4886,1.030495,88.4473,8.6708,-59.5315,8.6646,-179.5336,8.6674,60.5028
255335,SLG,0,0.650948,-33.582,1.133429,-158.2656,1.132706,96.1675,9.2945,-59.9222,9.2327,-179.5079,9.3217,60.6132
255335,SLG,10,0.99433,-34.8158,1.076798,-151.2805,1.029301,90.7572,8.6826,-59.6716,8.6581,-179.7837,8.6557,60.4128
255335,SLG,20,1.018464,-33.1695,1.061951,-151.0335,1.032525,89.9064,8.6352,-59.3651,8.6199,-179.4239,8.6199,60.6937
255335,SLG,30,1.023025,-32.4489,1.052308,-150.8861,1.030647,89.6655,8.6513,-59.1633,8.6391,-179.2039,8.6399,60.8868
255335,SLG,40,1.026669,-32.1196,1.049453,-150.8689,1.03178,89.5191,8.6443,-59.1008,8.6336,-179.132,8.6348,60.945
255335,LL,0,0.696239,-34.2003,0.646971,-157.3235,1.157404,88.6703,8.0647,-71.6933,8.051,-170.6124,10.4749,58.9041
255335,LL,10,0.987035,-32.9529,1.027349,-154.9872,1.062453,90.2612,8.7413,-60.3876,8.7375,179.4537,8.7184,59.5545
255335,LL,20,1.01197,-32.2263,1.038874,-153.0776,1.050685,89.7685,8.6625,-59.7432,8.6586,-179.8259,8.6497,60.238
255335,LL,30,1.017983,-31.8423,1.03792,-152.2809,1.042726,89.6141,8.6687,-59.4195,8.6643,-179.4761,8.6591,60.5775
255335,LL,40,1.022634,-31.6673,1.038878,-151.9296,1.040923,89.4919,8.6571,-59.2948,8.6524,-179.338,8.6491,60.7109
255335,3LG,0,0.681717,-36.9437,0.68266,-156.8865,0.682138,83.1249,7.019,-64.7643,7.0349,175.2266,7.026,55.1185
255335,3LG,10,1.016439,-33.4867,1.020401,-153.2969,1.015914,86.6703,8.7991,-61.3118,8.7926,178.6869,8.7957,58.724
255335,3LG,20,1.025582,-32.3021,1.029309,-152.0957,1.024753,87.8514,8.7207,-60.1283,8.7144,179.8698,8.7173,59.9065
255335,3LG,30,1.029527,-31.9067,1.033166,-151.6947,1.028585,88.2453,8.6873,-59.7342,8.6811,-179.7363,8.6839,60.3003
255335,3LG,40,1.03146,-31.7032,1.03505,-151.4885,1.030458,88.4478,8.6711,-59.5315,8.6649,-179.5336,8.6677,60.5028
182030,SLG,0,0.665877,-33.91,1.131613,-157.9458,1.127123,95.9924,9.2684,-59.9273,9.2067,-179.5695,9.2876,60.5808
182030,SLG,10,0.994394,-34.7796,1.076547,-151.2846,1.02949,90.7468,8.6823,-59.6653,8.658,-179.776,8.6557,60.4192
182030,SLG,20,1.018456,-33.1594,1.061884,-151.0353,1.032588,89.904,8.6352,-59.3633,8.6199,-179.4218,8.62,60.6955
182030,SLG,30,1.023017,-32.4443,1.052278,-150.887,1.030678,89.6646,8.6513,-59.1625,8.6391,-179.203,8.6399,60.8877
182030,SLG,40,1.026663,-32.117,1.049436,-150.8694,1.031797,89.5186,8.6443,-59.1003,8.6336,-179.1314,8.6349,60.9455
182030,LL,0,0.712965,-34.1817,0.665689,-157.665,1.153653,88.7477,8.1987,-70.6331,8.1702,-171.9779,10.3739,58.8163
182030,LL,10,0.987373,-32.9307,1.027109,-154.9549,1.062355,90.2461,8.7412,-60.3753,8.7373,179.4665,8.7183,59.5677
182030,LL,20,1.012058,-32.2189,1.038776,-153.0695,1.050675,89.7637,8.6626,-59.7398,8.6586,-179.8223,8.6498,60.2416
182030,LL,30,1.018019,-31.8386,1.037871,-152.2775,1.042726,89.6118,8.6688,-59.418,8.6643,-179.4745,8.6591,60.5792
182030,LL,40,1.022654,-31.6652,1.038848,-151.9277,1.040924,89.4906,8.6571,-59.2939,8.6524,-179.3371,8.6491,60.7119
182030,3LG,0,0.700844,-37.0282,0.701913,-156.9661,0.701278,83.0453,7.3225,-64.845,7.3396,175.1451,7.33,55.0344
182030,3LG,10,1.016441,-33.4685,1.020396,-153.2784,1.015907,86.6883,8.7991,-61.2935,8.7926,178.7052,8.7957,58.7423
182030,3LG,20,1.025574,-32.2972,1.029298,-152.0908,1.024743,87.8562,8.7208,-60.1235,8.7145,179.8746,8.7174,59.9114
182030,3LG,30,1.029522,-31.9045,1.03316,-151.6925,1.028579,88.2475,8.6873,-59.732,8.6811,-179.7341,8.684,60.3025
182030,3LG,40,1.031457,-31.702,1.035046,-151.4872,1.030455,88.449,8.6711,-59.5302,8.6649,-179.5324,8.6677,60.5041
182153,SLG,0,0.745648,-34.893,1.119957,-156.3014,1.099828,94.9269,9.1272,-59.9171,9.0678,-179.7809,9.1164,60.4739
182153,SLG,10,0.994986,-34.5424,1.074845,-151.3085,1.030677,90.6743,8.6806,-59.6247,8.6569,-179.726,8.6555,60.4605
182153,SLG,20,1.015508,-32.997,1.057229,-150.9485,1.029204,89.9358,8.6659,-59.2684,8.6507,-179.3249,8.6509,60.7909
182153,SLG,30,1.022978,-32.412,1.052056,-150.8936,1.030882,89.6571,8.6514,-59.157,8.6392,-179.1963,8.6401,60.8935
182153,SLG,40,1.026632,-32.0983,1.049309,-150.8734,1.031917,89.5144,8.6443,-59.0971,8.6336,-179.1275,8.635,60.9489
182153,LL,0,0.800033,-34.5545,0.752998,-158.5568,1.131469,89.031,8.8487,-66.2135,8.7524,-177.9097,9.8813,58.4005
182153,LL,10,0.990052,-32.7678,1.025561,-154.7561,1.061733,90.1391,8.7388,-60.2957,8.7347,179.5504,8.7164,59.6506
182153,LL,20,1.012757,-32.1618,1.038112,-153.0185,1.050618,89.7285,8.6625,-59.7166,8.6584,-179.7979,8.6498,60.2659
182153,LL,30,1.018315,-31.8103,1.037529,-152.2554,1.042727,89.5952,8.6688,-59.4072,8.6644,-179.4631,8.6593,60.5905
182153,LL,40,1.022818,-31.6483,1.03864,-151.9152,1.04093,89.4807,8.6572,-59.2876,8.6524,-179.3305,8.6492,60.7184
182153,3LG,0,0.791211,-37.5593,0.793055,-157.4635,0.791587,82.5435,8.7564,-65.3546,8.7799,174.6308,8.7663,54.5051
182153,3LG,10,1.016827,-33.3549,1.020746,-153.1615,1.016235,86.8023,8.796,-61.1789,8.7895,178.8197,8.7926,58.8568
182153,3LG,20,1.025617,-32.2654,1.029332,-152.0578,1.024766,87.8883,8.7205,-60.0912,8.7142,179.9069,8.7171,59.9436
182153,3LG,30,1.02953,-31.8897,1.033165,-151.6771,1.028576,88.2626,8.6873,-59.7169,8.6811,-179.719,8.6839,60.3175
182153,3LG,40,1.031457,-31.6934,1.035045,-151.4782,1.030447,88.4578,8.6711,-59.5215,8.6649,-179.5236,8.6677,60.5128
182158,SLG,0,0.769592,-34.7213,1.114489,-155.8574,1.093466,94.5089,9.0836,-59.8692,9.0259,-179.7612,9.0696,60.5004
182158,SLG,10,0.99503,-34.4514,1.074224,-151.3215,1.031185,90.6501,8.6802,-59.6091,8.6567,-179.7067,8.6557,60.4767
182158,SLG,20,1.015436,-32.9705,1.057059,-150.9545,1.029381,89.9305,8.666,-59.2638,8.6508,-179.3193,8.6512,60.7958
182158,SLG,30,1.02293,-32.3995,1.051977,-150.8968,1.030969,89.6549,8.6514,-59.1548,8.6392,-179.1937,8.6403,60.8958
182158,SLG,40,1.0266,-32.091,1.049264,-150.8753,1.031969,89.5132,8.6444,-59.0959,8.6337,-179.126,8.6351,60.9503
182158,LL,0,0.821587,-34.3186,0.777806,-158.0787,1.124246,89.0648,9.0164,-64.957,8.9061,-179.0376,9.7512,58.5464
182158,LL,10,0.991005,-32.7057,1.024754,-154.6823,1.061547,90.0963,8.7387,-60.2662,8.7345,179.5808,8.7164,59.6813
182158,LL,20,1.013005,-32.139,1.03778,-153.0001,1.05062,89.7143,8.6627,-59.7079,8.6586,-179.7889,8.65,60.2749
182158,LL,30,1.018417,-31.7988,1.03736,-152.2476,1.042741,89.5884,8.669,-59.4031,8.6645,-179.4589,8.6594,60.5947
182158,LL,40,1.022874,-31.6413,1.038538,-151.9109,1.040941,89.4768,8.6573,-59.2853,8.6525,-179.328,8.6493,60.7209
182158,3LG,0,0.813855,-37.1295,0.815959,-157.0166,0.814151,82.9843,9.1152,-64.9161,9.1408,175.0693,9.126,54.9374
182158,3LG,10,1.016844,-33.3145,1.02074,-153.1202,1.01623,86.842,8.796,-61.1384,8.7895,178.8602,8.7925,58.8973
182158,3LG,20,1.025597,-32.2539,1.029303,-152.0462,1.024741,87.8995,8.7207,-60.0797,8.7144,179.9183,8.7173,59.9551
182158,3LG,30,1.029516,-31.8843,1.033147,-151.6716,1.02856,88.2678,8.6875,-59.7115,8.6812,-179.7136,8.6841,60.3229
182158,3LG,40,1.031448,-31.6903,1.035033,-151.4751,1.030436,88.4608,8.6712,-59.5183,8.665,-179.5205,8.6678,60.516
182162,SLG,0,0.789415,-34.5189,1.10968,-155.4957,1.088555,94.1469,9.0472,-59.8211,8.9913,-179.731,9.0317,60.5312
182162,SLG,10,0.995057,-34.3661,1.07365,-151.3341,1.031668,90.6279,8.6799,-59.5945,8.6566,-179.6886,8.6559,60.4918
182162,SLG,20,1.018308,-33.0376,1.061063,-151.0588,1.033357,89.8758,8.6353,-59.3423,8.6202,-179.3963,8.6207,60.7175
182162,SLG,30,1.022879,-32.3878,1.051905,-150.8999,1.031054,89.653,8.6515,-59.1528,8.6393,-179.1912,8.6404,60.898
182162,SLG,40,1.026566,-32.0843,1.049223,-150.8772,1.032019,89.5122,8.6444,-59.0947,8.6338,-179.1246,8.6352,60.9515
182162,LL,0,0.83879,-34.1012,0.79788,-157.6007,1.118131,89.083,9.1499,-63.9518,9.0298,-179.8495,9.6481,58.7042
182162,LL,10,0.9919,-32.6487,1.023984,-154.6129,1.061376,90.0562,8.7386,-60.2389,8.7342,179.6089,8.7163,59.7099
182162,LL,20,1.013242,-32.1173,1.037456,-152.9828,1.050627,89.7006,8.6629,-59.6997,8.6588,-179.7805,8.6502,60.2834
182162,LL,30,1.018514,-31.7878,1.037194,-152.2405,1.042758,89.582,8.6691,-59.3993,8.6646,-179.4549,8.6596,60.5987
182162,LL,40,1.022927,-31.6347,1.038438,-151.9071,1.040954,89.473,8.6574,-59.2831,8.6526,-179.3258,8.6494,60.7232
182162,3LG,0,0.831735,-36.7232,0.834059,-156.5955,0.831949,83.3999,9.3986,-64.5022,9.4259,175.4833,9.4102,55.3464
182162,3LG,10,1.01685,-33.2773,1.020724,-153.0822,1.016215,86.8784,8.796,-61.1012,8.7896,178.8974,8.7926,58.9345
182162,3LG,20,1.025576,-32.2433,1.029274,-152.0354,1.024714,87.9098,8.7209,-60.0692,8.7146,179.9289,8.7175,59.9657
182162,3LG,30,1.029502,-31.8794,1.033129,-151.6666,1.028544,88.2726,8.6876,-59.7066,8.6814,-179.7087,8.6842,60.3278
182162,3LG,40,1.031438,-31.6875,1.035021,-151.4722,1.030426,88.4636,8.6713,-59.5155,8.6651,-179.5176,8.6679,60.5188
